data_image0
_chemical_formula_structural       Nd12Ni12O36
_chemical_formula_sum              "Nd12 Ni12 O36"
_cell_length_a       5.35987
_cell_length_b       9.28357
_cell_length_c       13.1289
_cell_angle_alpha    90
_cell_angle_beta     90
_cell_angle_gamma    90

_space_group_name_H-M_alt    "P 1"
_space_group_IT_number       1

loop_
  _space_group_symop_operation_xyz
  'x, y, z'

loop_
  _atom_site_type_symbol
  _atom_site_label
  _atom_site_symmetry_multiplicity
  _atom_site_fract_x
  _atom_site_fract_y
  _atom_site_fract_z
  _atom_site_occupancy
  Nd  Nd1       1.0  0.00000  0.00000  0.00000  1.0000
  Nd  Nd2       1.0  0.50000  0.16667  0.16667  1.0000
  Nd  Nd3       1.0  0.00000  0.33333  0.33333  1.0000
  Nd  Nd4       1.0  0.50000  0.50000  0.50000  1.0000
  Nd  Nd5       1.0  0.00000  0.66667  0.66667  1.0000
  Nd  Nd6       1.0  0.50000  0.83333  0.83333  1.0000
  Nd  Nd7       1.0  0.00000  0.66667  0.16667  1.0000
  Nd  Nd8       1.0  0.50000  0.83333  0.33333  1.0000
  Nd  Nd9       1.0  -0.00000  0.00000  0.50000  1.0000
  Nd  Nd10      1.0  0.50000  0.16667  0.66667  1.0000
  Nd  Nd11      1.0  0.00000  0.33333  0.83333  1.0000
  Nd  Nd12      1.0  0.50000  0.50000  1.00000  1.0000
  Ni  Ni1       1.0  -0.00000  0.00000  0.25000  1.0000
  Ni  Ni2       1.0  0.50000  0.16667  0.41667  1.0000
  Ni  Ni3       1.0  0.00000  0.33333  0.58333  1.0000
  Ni  Ni4       1.0  0.50000  0.50000  0.75000  1.0000
  Ni  Ni5       1.0  1.00000  0.66667  0.91667  1.0000
  Ni  Ni6       1.0  0.50000  0.83333  0.08333  1.0000
  Ni  Ni7       1.0  0.00000  0.66667  0.41667  1.0000
  Ni  Ni8       1.0  0.50000  0.83333  0.58333  1.0000
  Ni  Ni9       1.0  0.00000  0.00000  0.75000  1.0000
  Ni  Ni10      1.0  0.50000  0.16667  0.91667  1.0000
  Ni  Ni11      1.0  0.00000  0.33333  0.08333  1.0000
  Ni  Ni12      1.0  0.50000  0.50000  0.25000  1.0000
  O   O1        1.0  0.00000  0.17385  0.17385  1.0000
  O   O2        1.0  0.50000  0.32615  0.32615  1.0000
  O   O3        1.0  -0.00000  0.50718  0.50718  1.0000
  O   O4        1.0  0.50000  0.65949  0.65949  1.0000
  O   O5        1.0  1.00000  0.84051  0.84051  1.0000
  O   O6        1.0  0.50000  0.99282  0.99282  1.0000
  O   O7        1.0  1.00000  0.82615  0.32615  1.0000
  O   O8        1.0  0.50000  0.00718  0.50718  1.0000
  O   O9        1.0  0.00000  0.15949  0.65949  1.0000
  O   O10       1.0  0.50000  0.34051  0.84051  1.0000
  O   O11       1.0  0.00000  0.49282  0.99282  1.0000
  O   O12       1.0  0.50000  0.67385  0.17385  1.0000
  O   O13       1.0  0.74192  0.92654  0.16577  1.0000
  O   O14       1.0  0.25808  0.07346  0.33423  1.0000
  O   O15       1.0  0.74192  0.25987  0.49910  1.0000
  O   O16       1.0  0.25808  0.40679  0.66756  1.0000
  O   O17       1.0  0.74192  0.59321  0.83244  1.0000
  O   O18       1.0  0.25808  0.74013  0.00090  1.0000
  O   O19       1.0  0.74192  0.57885  0.33962  1.0000
  O   O20       1.0  0.25808  0.75449  0.49372  1.0000
  O   O21       1.0  0.74192  0.91218  0.67295  1.0000
  O   O22       1.0  0.25808  0.08782  0.82705  1.0000
  O   O23       1.0  0.74192  0.24551  0.00628  1.0000
  O   O24       1.0  0.25808  0.42115  0.16038  1.0000
  O   O25       1.0  0.24192  0.92115  0.16038  1.0000
  O   O26       1.0  0.75808  0.07885  0.33962  1.0000
  O   O27       1.0  0.24192  0.25449  0.49372  1.0000
  O   O28       1.0  0.75808  0.41218  0.67295  1.0000
  O   O29       1.0  0.24192  0.58782  0.82705  1.0000
  O   O30       1.0  0.75808  0.74551  0.00628  1.0000
  O   O31       1.0  0.24192  0.57346  0.33423  1.0000
  O   O32       1.0  0.75808  0.75987  0.49910  1.0000
  O   O33       1.0  0.24192  0.90679  0.66756  1.0000
  O   O34       1.0  0.75808  0.09321  0.83244  1.0000
  O   O35       1.0  0.24192  0.24013  0.00090  1.0000
  O   O36       1.0  0.75808  0.42654  0.16577  1.0000
